Circuit: * FK30046xx

Fatal Error: No analysis request found.
